9
29.994360
C -0.9519530000 -0.0149018000 -0.0295864000
F -1.6579600000 -0.4936530000 -1.0282700000
F -0.9532950000 1.3098700000 -0.0349066000
F -1.6355600000 -0.4274990000 1.0963500000
C 0.6147460000 -0.4998560000 -0.1546630000
H 0.6964790000 -1.3603200000 -0.5948140000
C 1.7138400000 0.2985390000 0.0792175000
H 2.1850900000 1.2962300000 0.3216720000
F 3.1784900000 -0.2157300000 0.0159162000
